2024_89_CemigReconfigurationCases/1_AlimsCemig/JFAO803/JFAO803SegmentosMT.dss
new line.SMT_12127904 bus1=BMT3123335B.1.2.3,bus2=BMT8721197B.1.2.3,Phases=3,Linecode=CABA08_3_3_3,Length=0.032143000,Units=km
new line.SMT_12127910 bus1=BMT8721197B.1.2.3,bus2=BMT175929116.1.2.3,Phases=3,Linecode=CABA08_3_3_3,Length=0.009488000,Units=km
new line.SMT_12127912 bus1=BMT175929116.1.2.3,bus2=BMT175929117.1.2.3,Phases=3,Linecode=CABA08_3_3_3,Length=0.029071000,Units=km
new line.SMT_12128113 bus1=BMT175929178.1.2.3,bus2=BMT175929176.1.2.3,Phases=3,Linecode=CABA08_3_3_3,Length=0.011182000,Units=km
new line.SMT_12128114 bus1=BMT175929175.1.2.3,bus2=BMT175929174.1.2.3,Phases=3,Linecode=CABA08_3_3_3,Length=0.011182000,Units=km
new line.SMT_12128146 bus1=BMT175929174.1.2.3,bus2=BMT8721311B.1.2.3,Phases=3,Linecode=CABA08_3_3_3,Length=0.032205000,Units=km
new line.SMT_12128147 bus1=BMT8721311B.1.2.3,bus2=BMT175929177.1.2.3,Phases=3,Linecode=CABA08_3_3_3,Length=0.028305000,Units=km
new line.SMT_12128174 bus1=BMT175929174.1.2.3,bus2=BMT175929172.1.2.3,Phases=3,Linecode=CABA08_3_3_3,Length=0.021026000,Units=km
new line.SMT_12128189 bus1=BMT175929172.1.2.3,bus2=BMT8721326B.1.2.3,Phases=3,Linecode=CABA08_3_3_3,Length=0.030874000,Units=km
new line.SMT_12128190 bus1=BMT8721326B.1.2.3,bus2=BMT8721327B.1.2.3,Phases=3,Linecode=CABA08_3_3_3,Length=0.022563000,Units=km
new line.SMT_12128191 bus1=BMT8721327B.1.2.3,bus2=BMT8721329B.1.2.3,Phases=3,Linecode=CABA08_3_3_3,Length=0.023412000,Units=km
new line.SMT_12128192 bus1=BMT8721329B.1.2.3,bus2=BMT8721332B.1.2.3,Phases=3,Linecode=CABA08_3_3_3,Length=0.013040000,Units=km
new line.SMT_12128193 bus1=BMT8721332B.1.2.3,bus2=BMT8721334B.1.2.3,Phases=3,Linecode=CABA08_3_3_3,Length=0.029020000,Units=km
new line.SMT_12128194 bus1=BMT8721334B.1.2.3,bus2=BMT175929171.1.2.3,Phases=3,Linecode=CABA08_3_3_3,Length=0.031148000,Units=km
new line.SMT_12128198 bus1=BMT175929171.1.2.3,bus2=BMT8721341B.1.2.3,Phases=3,Linecode=CABA08_3_3_3,Length=0.031067000,Units=km
new line.SMT_12128199 bus1=BMT8721341B.1.2.3,bus2=BMT8721345B.1.2.3,Phases=3,Linecode=CABA08_3_3_3,Length=0.031148000,Units=km
new line.SMT_12128200 bus1=BMT8721345B.1.2.3,bus2=BMT175929173.1.2.3,Phases=3,Linecode=CABA08_3_3_3,Length=0.035131000,Units=km
new line.SMT_12128227 bus1=BMT175929171.1.2.3,bus2=BMT8721621B.1.2.3,Phases=3,Linecode=CABA11_5_3_3,Length=0.005100000,Units=km
new line.SMT_12128228 bus1=BMT8721621B.1.2.3,bus2=BMT8721625B.1.2.3,Phases=3,Linecode=CABA11_5_3_3,Length=0.016765000,Units=km
new line.SMT_12128229 bus1=BMT8721625B.1.2.3,bus2=BMT175929170.1.2.3,Phases=3,Linecode=CABA11_5_3_3,Length=0.005100000,Units=km
new line.SMT_12128292 bus1=BMT175929170.1.2.3,bus2=BMT8721355B.1.2.3,Phases=3,Linecode=CABA08_3_3_3,Length=0.020520000,Units=km
new line.SMT_12128336 bus1=BMT8721355B.1.2.3,bus2=BMT8721367B.1.2.3,Phases=3,Linecode=CABA08_3_3_3,Length=0.019211000,Units=km
new line.SMT_12128337 bus1=BMT8721367B.1.2.3,bus2=BMT8721369B.1.2.3,Phases=3,Linecode=CABA08_3_3_3,Length=0.019237000,Units=km
new line.SMT_12128338 bus1=BMT8721369B.1.2.3,bus2=BMT8721370B.1.2.3,Phases=3,Linecode=CABA08_3_3_3,Length=0.020883000,Units=km
new line.SMT_12128339 bus1=BMT8721370B.1.2.3,bus2=BMT8721374B.1.2.3,Phases=3,Linecode=CABA08_3_3_3,Length=0.037017000,Units=km
new line.SMT_12128340 bus1=BMT8721374B.1.2.3,bus2=BMT175929169.1.2.3,Phases=3,Linecode=CABA08_3_3_3,Length=0.030019000,Units=km
new line.SMT_12128341 bus1=BMT175929169.1.2.3,bus2=BMT8721388B.1.2.3,Phases=3,Linecode=CABA08_3_3_3,Length=0.038056000,Units=km
new line.SMT_12128342 bus1=BMT8721388B.1.2.3,bus2=BMT8721395B.1.2.3,Phases=3,Linecode=CABA08_3_3_3,Length=0.044015000,Units=km
new line.SMT_12128357 bus1=BMT8721395B.1.2.3,bus2=BMT8721404B.1.2.3,Phases=3,Linecode=CABA08_3_3_3,Length=0.040016000,Units=km
new line.SMT_12128358 bus1=BMT8721404B.1.2.3,bus2=BMT8721519B.1.2.3,Phases=3,Linecode=CABA08_3_3_3,Length=0.026308000,Units=km
new line.SMT_12128359 bus1=BMT8721519B.1.2.3,bus2=BMT175929168.1.2.3,Phases=3,Linecode=CABA08_3_3_3,Length=0.040525000,Units=km
new line.SMT_12128364 bus1=BMT175929168.1.2.3,bus2=BMT8721523B.1.2.3,Phases=3,Linecode=CABA08_3_3_3,Length=0.041235000,Units=km
new line.SMT_12128365 bus1=BMT8721523B.1.2.3,bus2=BMT175929164.1.2.3,Phases=3,Linecode=CABA08_3_3_3,Length=0.026175000,Units=km
new line.SMT_12128366 bus1=BMT175929163.1.2.3,bus2=BMT175929162.1.2.3,Phases=3,Linecode=CABA08_3_3_3,Length=0.028322000,Units=km
new line.SMT_12128392 bus1=BMT175929162.1.2.3,bus2=BMT8721529B.1.2.3,Phases=3,Linecode=CABA08_3_3_3,Length=0.022025000,Units=km
new line.SMT_12128393 bus1=BMT8721529B.1.2.3,bus2=BMT8721530B.1.2.3,Phases=3,Linecode=CABA08_3_3_3,Length=0.027661000,Units=km
new line.SMT_12128395 bus1=BMT175929162.1.2.3,bus2=BMT175929161.1.2.3,Phases=3,Linecode=CABA08_3_3_3,Length=0.032019000,Units=km
new line.SMT_12128397 bus1=BMT175929160.1.2.3,bus2=BMT175929159.1.2.3,Phases=3,Linecode=CABA08_3_3_3,Length=0.029157000,Units=km
new line.SMT_12128400 bus1=BMT175929159.1.2.3,bus2=BMT8721533B.1.2.3,Phases=3,Linecode=CABA08_3_3_3,Length=0.029157000,Units=km
new line.SMT_12128401 bus1=BMT8721533B.1.2.3,bus2=BMT8721534B.1.2.3,Phases=3,Linecode=CABA08_3_3_3,Length=0.029549000,Units=km
new line.SMT_12128402 bus1=BMT8721534B.1.2.3,bus2=BMT8721535B.1.2.3,Phases=3,Linecode=CABA08_3_3_3,Length=0.030417000,Units=km
new line.SMT_12128432 bus1=BMT8721535B.1.2.3,bus2=BMT8721537B.1.2.3,Phases=3,Linecode=CABA08_3_3_3,Length=0.030019000,Units=km
new line.SMT_12128433 bus1=BMT8721537B.1.2.3,bus2=BMT175929158.1.2.3,Phases=3,Linecode=CABA08_3_3_3,Length=0.029157000,Units=km
new line.SMT_12128434 bus1=BMT175929158.1.2.3,bus2=BMT8721543B.1.2.3,Phases=3,Linecode=CABA08_3_3_3,Length=0.028847000,Units=km
new line.SMT_12128435 bus1=BMT8721543B.1.2.3,bus2=BMT8721545B.1.2.3,Phases=3,Linecode=CABA08_3_3_3,Length=0.029157000,Units=km
new line.SMT_12128436 bus1=BMT8721545B.1.2.3,bus2=BMT8721548B.1.2.3,Phases=3,Linecode=CABA08_3_3_3,Length=0.017264000,Units=km
new line.SMT_12128452 bus1=BMT8721548B.1.2.3,bus2=BMT8721551B.1.2.3,Phases=3,Linecode=CABA08_3_3_3,Length=0.035850000,Units=km
new line.SMT_12128453 bus1=BMT8721551B.1.2.3,bus2=BMT8721553B.1.2.3,Phases=3,Linecode=CABA08_3_3_3,Length=0.022674000,Units=km
new line.SMT_12128454 bus1=BMT8721553B.1.2.3,bus2=BMT8721558B.1.2.3,Phases=3,Linecode=CABA08_3_3_3,Length=0.023262000,Units=km
new line.SMT_12128455 bus1=BMT8721558B.1.2.3,bus2=BMT8721564B.1.2.3,Phases=3,Linecode=CABA08_3_3_3,Length=0.025082000,Units=km
new line.SMT_12128456 bus1=BMT8721564B.1.2.3,bus2=BMT175929157.1.2.3,Phases=3,Linecode=CABA08_3_3_3,Length=0.022363000,Units=km
new line.SMT_12128470 bus1=BMT175929157.1.2.3,bus2=BMT8721569B.1.2.3,Phases=3,Linecode=CABA08_3_3_3,Length=0.035850000,Units=km
new line.SMT_12128471 bus1=BMT8721569B.1.2.3,bus2=BMT175929156.1.2.3,Phases=3,Linecode=CABA08_3_3_3,Length=0.025809000,Units=km
new line.SMT_12128472 bus1=BMT175929156.1.2.3,bus2=BMT8721575B.1.2.3,Phases=3,Linecode=CABA08_3_3_3,Length=0.024701000,Units=km
new line.SMT_12128489 bus1=BMT175929179.1.2.3,bus2=BMT8721663B.1.2.3,Phases=3,Linecode=CABA11_5_3_3,Length=0.005001000,Units=km
new line.SMT_12128490 bus1=BMT8721663B.1.2.3,bus2=BMT8721664B.1.2.3,Phases=3,Linecode=CABA11_5_3_3,Length=0.010818000,Units=km
new line.SMT_12128491 bus1=BMT8721664B.1.2.3,bus2=BMT175929180.1.2.3,Phases=3,Linecode=CABA11_5_3_3,Length=0.005386000,Units=km
new line.SMT_12128496 bus1=BMT175929180.1.2.3,bus2=BMT8721668B.1.2.3,Phases=3,Linecode=CABA06_3_3_3,Length=0.023539000,Units=km
new line.SMT_12128506 bus1=BMT8721668B.1.2.3,bus2=BMT8721672B.1.2.3,Phases=3,Linecode=CABA06_3_3_3,Length=0.023856000,Units=km
new line.SMT_12128507 bus1=BMT8721672B.1.2.3,bus2=BMT175929181.1.2.3,Phases=3,Linecode=CABA06_3_3_3,Length=0.028428000,Units=km
new line.SMT_12128508 bus1=BMT175929181.1.2.3,bus2=BMT8721691B.1.2.3,Phases=3,Linecode=CABA06_3_3_3,Length=0.027661000,Units=km
new line.SMT_12128515 bus1=BMT8721691B.1.2.3,bus2=BMT175929182.1.2.3,Phases=3,Linecode=CABA06_3_3_3,Length=0.032019000,Units=km
new line.SMT_12128516 bus1=BMT175929182.1.2.3,bus2=BMT175929183.1.2.3,Phases=3,Linecode=CABA06_3_3_3,Length=0.036404000,Units=km
new line.SMT_12128517 bus1=BMT175929184.1.2.3,bus2=BMT8721703B.1.2.3,Phases=3,Linecode=CABA06_3_3_3,Length=0.030086000,Units=km
new line.SMT_12128518 bus1=BMT8721703B.1.2.3,bus2=BMT8721704B.1.2.3,Phases=3,Linecode=CABA06_3_3_3,Length=0.045884000,Units=km
new line.SMT_12128538 bus1=BMT8721704B.1.2.3,bus2=BMT8721706B.1.2.3,Phases=3,Linecode=CABA06_3_3_3,Length=0.042194000,Units=km
new line.SMT_12128539 bus1=BMT8721706B.1.2.3,bus2=BMT175929185.1.2.3,Phases=3,Linecode=CABA06_3_3_3,Length=0.036773000,Units=km
new line.SMT_12128540 bus1=BMT175929185.1.2.3,bus2=BMT8721709B.1.2.3,Phases=3,Linecode=CABA06_3_3_3,Length=0.039828000,Units=km
new line.SMT_12128570 bus1=BMT175929192.1.2.3,bus2=BMT8721699B.1.2.3,Phases=3,Linecode=CABA11_5_3_3,Length=0.005001000,Units=km
new line.SMT_12128571 bus1=BMT8721699B.1.2.3,bus2=BMT8721698B.1.2.3,Phases=3,Linecode=CABA11_5_3_3,Length=0.017206000,Units=km
new line.SMT_12128572 bus1=BMT8721698B.1.2.3,bus2=BMT175929193.1.2.3,Phases=3,Linecode=CABA11_5_3_3,Length=0.005001000,Units=km
new line.SMT_12128577 bus1=BMT175929193.1.2.3,bus2=BMT8721710B.1.2.3,Phases=3,Linecode=CABA06_3_3_3,Length=0.026002000,Units=km
new line.SMT_12128578 bus1=BMT8721710B.1.2.3,bus2=BMT8721712B.1.2.3,Phases=3,Linecode=CABA06_3_3_3,Length=0.024741000,Units=km
new line.SMT_12128579 bus1=BMT8721712B.1.2.3,bus2=BMT8721716B.1.2.3,Phases=3,Linecode=CABA06_3_3_3,Length=0.010001000,Units=km
new line.SMT_12128580 bus1=BMT8721716B.1.2.3,bus2=BMT175929194.1.2.3,Phases=3,Linecode=CABA06_3_3_3,Length=0.043420000,Units=km
new line.SMT_12128584 bus1=BMT175929194.1.2.3,bus2=BMT8721727B.1.2.3,Phases=3,Linecode=CABA06_3_3_3,Length=0.039928000,Units=km
new line.SMT_12128742 bus1=BMT8721709B.1.2.3,bus2=BMT8722279B.1.2.3,Phases=3,Linecode=CABA06_3_3_3,Length=0.039055000,Units=km
new line.SMT_12128743 bus1=BMT8722279B.1.2.3,bus2=BMT8722280B.1.2.3,Phases=3,Linecode=CABA06_3_3_3,Length=0.039003000,Units=km
new line.SMT_12128744 bus1=BMT8722280B.1.2.3,bus2=BMT8722281B.1.2.3,Phases=3,Linecode=CABA06_3_3_3,Length=0.040116000,Units=km
new line.SMT_12128747 bus1=BMT8722281B.1.2.3,bus2=BMT8722282B.1.2.3,Phases=3,Linecode=CABA06_3_3_3,Length=0.030003000,Units=km
new line.SMT_12128748 bus1=BMT8722282B.1.2.3,bus2=BMT8722302B.1.2.3,Phases=3,Linecode=CABA06_3_3_3,Length=0.030679000,Units=km
new line.SMT_12128749 bus1=BMT8722302B.1.2.3,bus2=BMT8722305B.1.2.3,Phases=3,Linecode=CABA06_3_3_3,Length=0.024086000,Units=km
new line.SMT_12128750 bus1=BMT8722305B.1.2.3,bus2=BMT8722306B.1.2.3,Phases=3,Linecode=CABA06_3_3_3,Length=0.026422000,Units=km
new line.SMT_12128751 bus1=BMT8722306B.1.2.3,bus2=BMT8722308B.1.2.3,Phases=3,Linecode=CABA06_3_3_3,Length=0.026079000,Units=km
new line.SMT_12128752 bus1=BMT8722308B.1.2.3,bus2=BMT8722309B.1.2.3,Phases=3,Linecode=CABA06_3_3_3,Length=0.024599000,Units=km
new line.SMT_12128773 bus1=BMT8722309B.1.2.3,bus2=BMT175929186.1.2.3,Phases=3,Linecode=CABA06_3_3_3,Length=0.040315000,Units=km
new line.SMT_12128774 bus1=BMT175929186.1.2.3,bus2=BMT8722312B.1.2.3,Phases=3,Linecode=CABA06_3_3_3,Length=0.043684000,Units=km
new line.SMT_12128775 bus1=BMT8722312B.1.2.3,bus2=BMT8722313B.1.2.3,Phases=3,Linecode=CABA06_3_3_3,Length=0.038630000,Units=km
new line.SMT_12128776 bus1=BMT8722313B.1.2.3,bus2=BMT8722317B.1.2.3,Phases=3,Linecode=CABA06_3_3_3,Length=0.039361000,Units=km
new line.SMT_12128777 bus1=BMT8722317B.1.2.3,bus2=BMT8722318B.1.2.3,Phases=3,Linecode=CABA06_3_3_3,Length=0.027316000,Units=km
new line.SMT_12128787 bus1=BMT8722318B.1.2.3,bus2=BMT8722321B.1.2.3,Phases=3,Linecode=CABA06_3_3_3,Length=0.037487000,Units=km
new line.SMT_12128788 bus1=BMT8722321B.1.2.3,bus2=BMT8722324B.1.2.3,Phases=3,Linecode=CABA06_3_3_3,Length=0.039627000,Units=km
new line.SMT_12128789 bus1=BMT8722324B.1.2.3,bus2=BMT175929187.1.2.3,Phases=3,Linecode=CABA06_3_3_3,Length=0.040364000,Units=km
new line.SMT_12128790 bus1=BMT175929187.1.2.3,bus2=BMT8722330B.1.2.3,Phases=3,Linecode=CABA06_3_3_3,Length=0.033245000,Units=km
new line.SMT_12128791 bus1=BMT8722330B.1.2.3,bus2=BMT8722331B.1.2.3,Phases=3,Linecode=CABA06_3_3_3,Length=0.030890000,Units=km
new line.SMT_12128806 bus1=BMT8722331B.1.2.3,bus2=BMT8722332B.1.2.3,Phases=3,Linecode=CABA06_3_3_3,Length=0.018030000,Units=km
new line.SMT_12128807 bus1=BMT8722332B.1.2.3,bus2=BMT8722333B.1.2.3,Phases=3,Linecode=CABA06_3_3_3,Length=0.017890000,Units=km
new line.SMT_12128808 bus1=BMT8722333B.1.2.3,bus2=BMT8722334B.1.2.3,Phases=3,Linecode=CABA06_3_3_3,Length=0.040315000,Units=km
new line.SMT_12128809 bus1=BMT8722334B.1.2.3,bus2=BMT175929188.1.2.3,Phases=3,Linecode=CABA06_3_3_3,Length=0.034716000,Units=km
new line.SMT_12128810 bus1=BMT175929188.1.2.3,bus2=BMT8722338B.1.2.3,Phases=3,Linecode=CABA06_3_3_3,Length=0.034135000,Units=km
new line.SMT_12128811 bus1=BMT8722338B.1.2.3,bus2=BMT8722340B.1.2.3,Phases=3,Linecode=CABA06_3_3_3,Length=0.040315000,Units=km
new line.SMT_12128812 bus1=BMT8722340B.1.2.3,bus2=BMT175929189.1.2.3,Phases=3,Linecode=CABA06_3_3_3,Length=0.038292000,Units=km
new line.SMT_12128832 bus1=BMT175929189.1.2.3,bus2=BMT8722344B.1.2.3,Phases=3,Linecode=CABA06_3_3_3,Length=0.032653000,Units=km
new line.SMT_12128833 bus1=BMT8722344B.1.2.3,bus2=BMT8722345B.1.2.3,Phases=3,Linecode=CABA06_3_3_3,Length=0.034062000,Units=km
new line.SMT_12128834 bus1=BMT8722345B.1.2.3,bus2=BMT8722346B.1.2.3,Phases=3,Linecode=CABA06_3_3_3,Length=0.014319000,Units=km
new line.SMT_12128835 bus1=BMT8722346B.1.2.3,bus2=BMT8722347B.1.2.3,Phases=3,Linecode=CABA06_3_3_3,Length=0.020002000,Units=km
new line.SMT_12128836 bus1=BMT8722347B.1.2.3,bus2=BMT175929190.1.2.3,Phases=3,Linecode=CABA06_3_3_3,Length=0.031831000,Units=km
new line.SMT_12128837 bus1=BMT175929190.1.2.3,bus2=BMT8722351B.1.2.3,Phases=3,Linecode=CABA06_3_3_3,Length=0.030809000,Units=km
new line.SMT_12128838 bus1=BMT8722351B.1.2.3,bus2=BMT8722352B.1.2.3,Phases=3,Linecode=CABA06_3_3_3,Length=0.030890000,Units=km
new line.SMT_12128839 bus1=BMT8722352B.1.2.3,bus2=BMT8722354B.1.2.3,Phases=3,Linecode=CABA06_3_3_3,Length=0.031019000,Units=km
new line.SMT_12128854 bus1=BMT8722354B.1.2.3,bus2=BMT8722355B.1.2.3,Phases=3,Linecode=CABA06_3_3_3,Length=0.025320000,Units=km
new line.SMT_12128855 bus1=BMT8722355B.1.2.3,bus2=BMT8722363B.1.2.3,Phases=3,Linecode=CABA06_3_3_3,Length=0.015002000,Units=km
new line.SMT_12128856 bus1=BMT8722363B.1.2.3,bus2=BMT8722365B.1.2.3,Phases=3,Linecode=CABA06_3_3_3,Length=0.030417000,Units=km
new line.SMT_12128857 bus1=BMT8722365B.1.2.3,bus2=BMT175929191.1.2.3,Phases=3,Linecode=CABA06_3_3_3,Length=0.034135000,Units=km
new line.SMT_12128991 bus1=BMT8721727B.1.2.3,bus2=BMT8722497B.1.2.3,Phases=3,Linecode=CABA06_3_3_3,Length=0.038422000,Units=km
new line.SMT_12128992 bus1=BMT8722497B.1.2.3,bus2=BMT8722498B.1.2.3,Phases=3,Linecode=CABA06_3_3_3,Length=0.038643000,Units=km
new line.SMT_12128993 bus1=BMT8722498B.1.2.3,bus2=BMT8722500B.1.2.3,Phases=3,Linecode=CABA06_3_3_3,Length=0.031626000,Units=km
new line.SMT_12128994 bus1=BMT8722500B.1.2.3,bus2=BMT8722501B.1.2.3,Phases=3,Linecode=CABA06_3_3_3,Length=0.030417000,Units=km
new line.SMT_12128995 bus1=BMT8722501B.1.2.3,bus2=BMT8722503B.1.2.3,Phases=3,Linecode=CABA06_3_3_3,Length=0.030890000,Units=km
new line.SMT_12128996 bus1=BMT8722503B.1.2.3,bus2=BMT175929195.1.2.3,Phases=3,Linecode=CABA06_3_3_3,Length=0.031308000,Units=km
new line.SMT_12128997 bus1=BMT175929195.1.2.3,bus2=BMT175929196.1.2.3,Phases=3,Linecode=CABA06_3_3_3,Length=0.044422000,Units=km
new line.SMT_12128998 bus1=BMT175929196.1.2.3,bus2=BMT8722511B.1.2.3,Phases=3,Linecode=CABA06_3_3_3,Length=0.042806000,Units=km
new line.SMT_12128999 bus1=BMT8722511B.1.2.3,bus2=BMT8722514B.1.2.3,Phases=3,Linecode=CABA06_3_3_3,Length=0.042454000,Units=km
new line.SMT_12129000 bus1=BMT8722514B.1.2.3,bus2=BMT8722522B.1.2.3,Phases=3,Linecode=CABA06_3_3_3,Length=0.041884000,Units=km
new line.SMT_12129001 bus1=BMT8722522B.1.2.3,bus2=BMT8722524B.1.2.3,Phases=3,Linecode=CABA06_3_3_3,Length=0.042063000,Units=km
new line.SMT_12129002 bus1=BMT8722524B.1.2.3,bus2=BMT175929197.1.2.3,Phases=3,Linecode=CABA06_3_3_3,Length=0.032897000,Units=km
new line.SMT_12129017 bus1=BMT175929202.1.2.3,bus2=BMT8722622B.1.2.3,Phases=3,Linecode=CABA11_5_3_3,Length=0.005001000,Units=km
new line.SMT_12129018 bus1=BMT8722622B.1.2.3,bus2=BMT8722623B.1.2.3,Phases=3,Linecode=CABA11_5_3_3,Length=0.019649000,Units=km
new line.SMT_12129019 bus1=BMT8722623B.1.2.3,bus2=BMT175929203.1.2.3,Phases=3,Linecode=CABA11_5_3_3,Length=0.005001000,Units=km
new line.SMT_12129021 bus1=BMT175929203.1.2.3,bus2=BMT8722530B.1.2.3,Phases=3,Linecode=CABA06_3_3_3,Length=0.030367000,Units=km
new line.SMT_12129033 bus1=BMT8722530B.1.2.3,bus2=BMT8722532B.1.2.3,Phases=3,Linecode=CABA06_3_3_3,Length=0.028074000,Units=km
new line.SMT_12129034 bus1=BMT8722532B.1.2.3,bus2=BMT175929204.1.2.3,Phases=3,Linecode=CABA06_3_3_3,Length=0.007617000,Units=km
new line.SMT_12129035 bus1=BMT175929204.1.2.3,bus2=BMT8722534B.1.2.3,Phases=3,Linecode=CABA06_3_3_3,Length=0.035471000,Units=km
new line.SMT_12129036 bus1=BMT8722534B.1.2.3,bus2=BMT175929205.1.2.3,Phases=3,Linecode=CABA06_3_3_3,Length=0.041235000,Units=km
new line.SMT_12129037 bus1=BMT175929205.1.2.3,bus2=BMT8722541B.1.2.3,Phases=3,Linecode=CABA06_3_3_3,Length=0.043386000,Units=km
new line.SMT_12129057 bus1=BMT175929204.1.2.3,bus2=BMT8722659B.1.2.3,Phases=3,Linecode=CABA11_5_3_3,Length=0.006084000,Units=km
new line.SMT_12129058 bus1=BMT8722659B.1.2.3,bus2=BMT8722660B.1.2.3,Phases=3,Linecode=CABA11_5_3_3,Length=0.018030000,Units=km
new line.SMT_12129059 bus1=BMT8722660B.1.2.3,bus2=BMT175929206.1.2.3,Phases=3,Linecode=CABA11_5_3_3,Length=0.005100000,Units=km
new line.SMT_12129060 bus1=BMT175929206.1.2.3,bus2=BMT8722548B.1.2.3,Phases=3,Linecode=CABA06_3_3_3,Length=0.022806000,Units=km
new line.SMT_12129061 bus1=BMT8722548B.1.2.3,bus2=BMT8722551B.1.2.3,Phases=3,Linecode=CABA06_3_3_3,Length=0.022828000,Units=km
new line.SMT_12129062 bus1=BMT8722551B.1.2.3,bus2=BMT175929207.1.2.3,Phases=3,Linecode=CABA06_3_3_3,Length=0.008063000,Units=km
new line.SMT_12129063 bus1=BMT175929207.1.2.3,bus2=BMT8722565B.1.2.3,Phases=3,Linecode=CABA06_3_3_3,Length=0.031067000,Units=km
new line.SMT_12129076 bus1=BMT175929207.1.2.3,bus2=BMT8722682B.1.2.3,Phases=3,Linecode=CABA11_5_3_3,Length=0.005001000,Units=km
new line.SMT_12129077 bus1=BMT8722682B.1.2.3,bus2=BMT8722683B.1.2.3,Phases=3,Linecode=CABA11_5_3_3,Length=0.003606000,Units=km
new line.SMT_12129078 bus1=BMT8722683B.1.2.3,bus2=BMT175929209.1.2.3,Phases=3,Linecode=CABA11_5_3_3,Length=0.005001000,Units=km
new line.SMT_12129079 bus1=BMT175929209.1.2.3,bus2=BMT8722570B.1.2.3,Phases=3,Linecode=CABA06_3_3_3,Length=0.020520000,Units=km
new line.SMT_12129080 bus1=BMT8722570B.1.2.3,bus2=BMT8722572B.1.2.3,Phases=3,Linecode=CABA06_3_3_3,Length=0.019418000,Units=km
new line.SMT_12129081 bus1=BMT8722572B.1.2.3,bus2=BMT8722600B.1.2.3,Phases=3,Linecode=CABA06_3_3_3,Length=0.020250000,Units=km
new line.SMT_12129082 bus1=BMT8722600B.1.2.3,bus2=BMT175929210.1.2.3,Phases=3,Linecode=CABA06_3_3_3,Length=0.033380000,Units=km
new line.SMT_12129083 bus1=BMT175929210.1.2.3,bus2=BMT8722609B.1.2.3,Phases=3,Linecode=CABA06_3_3_3,Length=0.032391000,Units=km
new line.SMT_12129084 bus1=BMT8722609B.1.2.3,bus2=BMT8722717B.1.2.3,Phases=3,Linecode=CABA06_3_3_3,Length=0.031403000,Units=km
new line.SMT_12129108 bus1=BMT175929197.1.2.3,bus2=BMT8722784B.1.2.3,Phases=3,Linecode=CABA06_3_3_3,Length=0.043742000,Units=km
new line.SMT_12129109 bus1=BMT8722784B.1.2.3,bus2=BMT8722785B.1.2.3,Phases=3,Linecode=CABA06_3_3_3,Length=0.042111000,Units=km
new line.SMT_12129110 bus1=BMT8722785B.1.2.3,bus2=BMT8722786B.1.2.3,Phases=3,Linecode=CABA06_3_3_3,Length=0.042051000,Units=km
new line.SMT_12129111 bus1=BMT8722786B.1.2.3,bus2=BMT175929198.1.2.3,Phases=3,Linecode=CABA06_3_3_3,Length=0.040265000,Units=km
new line.SMT_12129113 bus1=BMT175929198.1.2.3,bus2=BMT8722788B.1.2.3,Phases=3,Linecode=CABA06_3_3_3,Length=0.039928000,Units=km
new line.SMT_12129114 bus1=BMT8722788B.1.2.3,bus2=BMT8722789B.1.2.3,Phases=3,Linecode=CABA06_3_3_3,Length=0.033544000,Units=km
new line.SMT_12129115 bus1=BMT8722789B.1.2.3,bus2=BMT8722790B.1.2.3,Phases=3,Linecode=CABA06_3_3_3,Length=0.040228000,Units=km
new line.SMT_12129116 bus1=BMT8722790B.1.2.3,bus2=BMT175929199.1.2.3,Phases=3,Linecode=CABA06_3_3_3,Length=0.043143000,Units=km
new line.SMT_12129119 bus1=BMT175929199.1.2.3,bus2=BMT8722792B.1.2.3,Phases=3,Linecode=CABA06_3_3_3,Length=0.044208000,Units=km
new line.SMT_12129120 bus1=BMT8722792B.1.2.3,bus2=BMT8722793B.1.2.3,Phases=3,Linecode=CABA06_3_3_3,Length=0.038952000,Units=km
new line.SMT_12129121 bus1=BMT8722793B.1.2.3,bus2=BMT8722794B.1.2.3,Phases=3,Linecode=CABA06_3_3_3,Length=0.013040000,Units=km
new line.SMT_12129122 bus1=BMT8722794B.1.2.3,bus2=BMT8722797B.1.2.3,Phases=3,Linecode=CABA06_3_3_3,Length=0.034062000,Units=km
new line.SMT_12129124 bus1=BMT8722797B.1.2.3,bus2=BMT175929200.1.2.3,Phases=3,Linecode=CABA06_3_3_3,Length=0.033380000,Units=km
new line.SMT_12129139 bus1=BMT8722541B.1.2.3,bus2=BMT8722804B.1.2.3,Phases=3,Linecode=CABA06_3_3_3,Length=0.036404000,Units=km
new line.SMT_12129140 bus1=BMT8722804B.1.2.3,bus2=BMT8722805B.1.2.3,Phases=3,Linecode=CABA06_3_3_3,Length=0.042300000,Units=km
new line.SMT_12129141 bus1=BMT8722805B.1.2.3,bus2=BMT175929212.1.2.3,Phases=3,Linecode=CABA06_3_3_3,Length=0.041198000,Units=km
new line.SMT_12129142 bus1=BMT175929212.1.2.3,bus2=BMT8722808B.1.2.3,Phases=3,Linecode=CABA06_3_3_3,Length=0.043015000,Units=km
new line.SMT_12129143 bus1=BMT8722808B.1.2.3,bus2=BMT8722809B.1.2.3,Phases=3,Linecode=CABA06_3_3_3,Length=0.035344000,Units=km
new line.SMT_12129144 bus1=BMT8722809B.1.2.3,bus2=BMT175929213.1.2.3,Phases=3,Linecode=CABA06_3_3_3,Length=0.042806000,Units=km
new line.SMT_12129177 bus1=BMT8722565B.1.2.3,bus2=BMT8722830B.1.2.3,Phases=3,Linecode=CABA06_3_3_3,Length=0.029157000,Units=km
new line.SMT_12129178 bus1=BMT8722830B.1.2.3,bus2=BMT175929208.1.2.3,Phases=3,Linecode=CABA06_3_3_3,Length=0.044287000,Units=km
new line.SMT_12129279 bus1=BMT8722717B.1.2.3,bus2=BMT8723033B.1.2.3,Phases=3,Linecode=CABA06_3_3_3,Length=0.030417000,Units=km
new line.SMT_12129280 bus1=BMT8723033B.1.2.3,bus2=BMT8723034B.1.2.3,Phases=3,Linecode=CABA06_3_3_3,Length=0.029431000,Units=km
new line.SMT_12129281 bus1=BMT8723034B.1.2.3,bus2=BMT175929211.1.2.3,Phases=3,Linecode=CABA06_3_3_3,Length=0.028428000,Units=km
new line.SMT_12129290 bus1=BMT8721575B.1.2.3,bus2=BMT8722737B.1.2.3,Phases=3,Linecode=CABA08_3_3_3,Length=0.029617000,Units=km
new line.SMT_12129291 bus1=BMT8722737B.1.2.3,bus2=BMT8722736B.1.2.3,Phases=3,Linecode=CABA08_3_3_3,Length=0.018250000,Units=km
new line.SMT_12129292 bus1=BMT8722736B.1.2.3,bus2=BMT8722735B.1.2.3,Phases=3,Linecode=CABA08_3_3_3,Length=0.040016000,Units=km
new line.SMT_12129293 bus1=BMT8722735B.1.2.3,bus2=BMT8722734B.1.2.3,Phases=3,Linecode=CABA08_3_3_3,Length=0.038901000,Units=km
new line.SMT_12129295 bus1=BMT8722734B.1.2.3,bus2=BMT8722733B.1.2.3,Phases=3,Linecode=CABA08_3_3_3,Length=0.038836000,Units=km
new line.SMT_12129296 bus1=BMT8722733B.1.2.3,bus2=BMT175929155.1.2.3,Phases=3,Linecode=CABA08_3_3_3,Length=0.038952000,Units=km
new line.SMT_12129297 bus1=BMT175929155.1.2.3,bus2=BMT175929154.1.2.3,Phases=3,Linecode=CABA08_3_3_3,Length=0.017090000,Units=km
new line.SMT_12129309 bus1=BMT175929153.1.2.3,bus2=BMT175929152.1.2.3,Phases=3,Linecode=CABA08_3_3_3,Length=0.018359000,Units=km
new line.SMT_12129329 bus1=BMT175929152.1.2.3,bus2=BMT175929151.1.2.3,Phases=3,Linecode=CABA11_5_3_3,Length=0.005001000,Units=km
new line.SMT_12129330 bus1=BMT175929151.1.2.3,bus2=BMT175929150.1.2.3,Phases=3,Linecode=CABA08_5_3_3,Length=0.019649000,Units=km
new line.SMT_12129331 bus1=BMT175929150.1.2.3,bus2=BMT175929149.1.2.3,Phases=3,Linecode=CABA11_5_3_3,Length=0.006709000,Units=km
new line.SMT_12129333 bus1=BMT175929149.1.2.3,bus2=BMT175929147.1.2.3,Phases=3,Linecode=CABA08_3_3_3,Length=0.013040000,Units=km
new line.SMT_12129400 bus1=BMT8722723B.1.2.3,bus2=BMT175929144.1.2.3,Phases=3,Linecode=CABA08_3_3_3,Length=0.030417000,Units=km
new line.SMT_12129406 bus1=BMT175929144.1.2.3,bus2=BMT8723132B.1.2.3,Phases=3,Linecode=CABA11_5_3_3,Length=0.005001000,Units=km
new line.SMT_12129407 bus1=BMT8723132B.1.2.3,bus2=BMT8723133B.1.2.3,Phases=3,Linecode=CABA11_5_3_3,Length=0.026835000,Units=km
new line.SMT_12129408 bus1=BMT8723133B.1.2.3,bus2=BMT175929143.1.2.3,Phases=3,Linecode=CABA11_5_3_3,Length=0.005001000,Units=km
new line.SMT_12129411 bus1=BMT175929143.1.2.3,bus2=BMT8722711B.1.2.3,Phases=3,Linecode=CABA08_3_3_3,Length=0.024189000,Units=km
new line.SMT_12129413 bus1=BMT175929143.1.2.3,bus2=BMT175929145.1.2.3,Phases=3,Linecode=CABA08_3_3_3,Length=0.018113000,Units=km
new line.SMT_12129414 bus1=BMT178836415.1.2.3,bus2=BMT178836416.1.2.3,Phases=3,Linecode=CABA06_3_3_3,Length=0.032205000,Units=km
new line.SMT_12129415 bus1=BMT8722711B.1.2.3,bus2=BMT175929140.1.2.3,Phases=3,Linecode=CABA08_3_3_3,Length=0.028074000,Units=km
new line.SMT_12129416 bus1=BMT175929140.1.2.3,bus2=BMT175929137.1.2.3,Phases=3,Linecode=CABA08_3_3_3,Length=0.028234000,Units=km
new line.SMT_12129417 bus1=BMT175929137.1.2.3,bus2=BMT8722708B.1.2.3,Phases=3,Linecode=CABA08_3_3_3,Length=0.014319000,Units=km
new line.SMT_12129418 bus1=BMT8722708B.1.2.3,bus2=BMT8722707B.1.2.3,Phases=3,Linecode=CABA08_3_3_3,Length=0.033124000,Units=km
new line.SMT_12129419 bus1=BMT8722707B.1.2.3,bus2=BMT175929136.1.2.3,Phases=3,Linecode=CABA08_3_3_3,Length=0.036404000,Units=km
new line.SMT_12129420 bus1=BMT175929136.1.2.3,bus2=BMT8722705B.1.2.3,Phases=3,Linecode=CABA08_3_3_3,Length=0.020002000,Units=km
...
