2024_89_CemigReconfigurationCases/1_AlimsCemig/JFAO803/JFAO803Transformadores.dss
new transformer.TRF_1050216 Phases=3,Windings=2,Buses=[BMT175929517.1.2.3 BBT115862926.1.2.3.0],Conns=[delta wye],kvs=[22.000000000 0.22],kvas=[75.000000000 75.000000000],Taps=[1,1.000000000],XHL=3.650000000,%loadloss=1.650000000,%noloadloss=0.420000000
new transformer.TRF_1108855 Phases=3,Windings=2,Buses=[BMT175929301.1.2.3 BBT144003969.1.2.3.0],Conns=[delta wye],kvs=[22.000000000 0.22],kvas=[45.000000000 45.000000000],Taps=[1,1.000000000],XHL=3.540000000,%loadloss=1.870000000,%noloadloss=0.477000000
new transformer.TRF_1124878A Phases=1,Windings=3,Buses=[BMT179988684.1 BBT148008732.1.0 BBT148008732.0.2],Conns=[wye wye wye],kvs=[12.70 0.12 0.12],kvas=[5.000000000 5.000000000 5.000000000],Taps=[1,1.000000000,1.000000000],XHL=0.980000000,XHT=0.980000000,XLT=0.784000000,%loadloss=2.300000000,%noloadloss=0.800000000
new transformer.TRF_1393228 Phases=3,Windings=2,Buses=[BMT175929177.1.2.3 BBT148780645.1.2.3.0],Conns=[delta wye],kvs=[22.000000000 0.22],kvas=[45.000000000 45.000000000],Taps=[1,1.000000000],XHL=3.540000000,%loadloss=1.870000000,%noloadloss=0.477000000
new transformer.TRF_1393230 Phases=3,Windings=2,Buses=[BMT175929172.1.2.3 BBT148781292.1.2.3.0],Conns=[delta wye],kvs=[22.000000000 0.22],kvas=[45.000000000 45.000000000],Taps=[1,1.000000000],XHL=3.540000000,%loadloss=1.870000000,%noloadloss=0.477000000
new transformer.TRF_1393235 Phases=3,Windings=2,Buses=[BMT175929173.1.2.3 BBT148781848.1.2.3.0],Conns=[delta wye],kvs=[22.000000000 0.22],kvas=[75.000000000 75.000000000],Taps=[1,1.000000000],XHL=3.650000000,%loadloss=1.650000000,%noloadloss=0.420000000
new transformer.TRF_1393254 Phases=3,Windings=2,Buses=[BMT175929169.1.2.3 BBT148786609.1.2.3.0],Conns=[delta wye],kvs=[22.000000000 0.22],kvas=[75.000000000 75.000000000],Taps=[1,1.000000000],XHL=3.650000000,%loadloss=1.650000000,%noloadloss=0.420000000
new transformer.TRF_1393258 Phases=3,Windings=2,Buses=[BMT175929168.1.2.3 BBT148787808.1.2.3.0],Conns=[delta wye],kvs=[22.000000000 0.22],kvas=[45.000000000 45.000000000],Taps=[1,1.000000000],XHL=3.540000000,%loadloss=1.870000000,%noloadloss=0.477000000
new transformer.TRF_1393267 Phases=3,Windings=2,Buses=[BMT175929159.1.2.3 BBT148788481.1.2.3.0],Conns=[delta wye],kvs=[22.000000000 0.22],kvas=[45.000000000 45.000000000],Taps=[1,1.000000000],XHL=3.540000000,%loadloss=1.870000000,%noloadloss=0.477000000
new transformer.TRF_1393274 Phases=3,Windings=2,Buses=[BMT175929158.1.2.3 BBT148789921.1.2.3.0],Conns=[delta wye],kvs=[22.000000000 0.22],kvas=[45.000000000 45.000000000],Taps=[1,1.000000000],XHL=3.540000000,%loadloss=1.870000000,%noloadloss=0.477000000
new transformer.TRF_1393275 Phases=3,Windings=2,Buses=[BMT175929157.1.2.3 BBT148790589.1.2.3.0],Conns=[delta wye],kvs=[22.000000000 0.22],kvas=[45.000000000 45.000000000],Taps=[1,1.000000000],XHL=3.540000000,%loadloss=1.870000000,%noloadloss=0.477000000
new transformer.TRF_1393286 Phases=3,Windings=2,Buses=[BMT175929181.1.2.3 BBT148792371.1.2.3.0],Conns=[delta wye],kvs=[22.000000000 0.22],kvas=[45.000000000 45.000000000],Taps=[1,1.000000000],XHL=3.540000000,%loadloss=1.870000000,%noloadloss=0.477000000
new transformer.TRF_1393293 Phases=3,Windings=2,Buses=[BMT175929185.1.2.3 BBT148793661.1.2.3.0],Conns=[delta wye],kvs=[22.000000000 0.22],kvas=[45.000000000 45.000000000],Taps=[1,1.000000000],XHL=3.540000000,%loadloss=1.870000000,%noloadloss=0.477000000
new transformer.TRF_1393299 Phases=3,Windings=2,Buses=[BMT175929194.1.2.3 BBT148794762.1.2.3.0],Conns=[delta wye],kvs=[22.000000000 0.22],kvas=[75.000000000 75.000000000],Taps=[1,1.000000000],XHL=3.650000000,%loadloss=1.650000000,%noloadloss=0.420000000
new transformer.TRF_1393319 Phases=3,Windings=2,Buses=[BMT175929186.1.2.3 BBT148803873.1.2.3.0],Conns=[delta wye],kvs=[22.000000000 0.22],kvas=[45.000000000 45.000000000],Taps=[1,1.000000000],XHL=3.540000000,%loadloss=1.870000000,%noloadloss=0.477000000
new transformer.TRF_1393322 Phases=3,Windings=2,Buses=[BMT175929187.1.2.3 BBT148804756.1.2.3.0],Conns=[delta wye],kvs=[22.000000000 0.22],kvas=[45.000000000 45.000000000],Taps=[1,1.000000000],XHL=3.540000000,%loadloss=1.870000000,%noloadloss=0.477000000
new transformer.TRF_1393328 Phases=3,Windings=2,Buses=[BMT175929188.1.2.3 BBT148805390.1.2.3.0],Conns=[delta wye],kvs=[22.000000000 0.22],kvas=[45.000000000 45.000000000],Taps=[1,1.000000000],XHL=3.540000000,%loadloss=1.870000000,%noloadloss=0.477000000
new transformer.TRF_1393335 Phases=3,Windings=2,Buses=[BMT175929189.1.2.3 BBT148806573.1.2.3.0],Conns=[delta wye],kvs=[22.000000000 0.22],kvas=[45.000000000 45.000000000],Taps=[1,1.000000000],XHL=3.540000000,%loadloss=1.870000000,%noloadloss=0.477000000
new transformer.TRF_1393336 Phases=3,Windings=2,Buses=[BMT175929190.1.2.3 BBT148806667.1.2.3.0],Conns=[delta wye],kvs=[22.000000000 0.22],kvas=[45.000000000 45.000000000],Taps=[1,1.000000000],XHL=3.540000000,%loadloss=1.870000000,%noloadloss=0.477000000
...